/*--------------------------------*- C++ -*----------------------------------*\
| =========                 |                                                 |
| \\      /  F ield         | OpenFOAM: The Open Source CFD Toolbox           |
|  \\    /   O peration     | Version:  3.0.1                                 |
|   \\  /    A nd           | Web:      www.OpenFOAM.org                      |
|    \\/     M anipulation  |                                                 |
\*---------------------------------------------------------------------------*/
FoamFile
{
    version     2.0;
    format      ascii;
    class       volScalarField;
    location    "0";
    object      omega;
}
// * * * * * * * * * * * * * * * * * * * * * * * * * * * * * * * * * * * * * //

#include        "include/initialConditions"

dimensions      [0 0 -1 0 0 0 0];

internalField   uniform $turbulentOmega;

boundaryField
{
	#includeEtc "caseDicts/setConstraintTypes"

    inlet
    {
        type    fixedValue;
        value   $internalField;
    }

    outlet
    {
        type     zeroGradient;
    }

    top
    {
        type          inletOutlet;
        inletValue    $internalField;
        value         $internalField;
    }

	midPlane
	{
		type	symmetryPlane;
	}

    ship
    {
        type     omegaWallFunction;
        value    $internalField;
    }
}

// ************************************************************************* //
