/*--------------------------------*- C++ -*----------------------------------*\
| =========                 |                                                 |
| \\      /  F ield         | OpenFOAM: The Open Source CFD Toolbox           |
|  \\    /   O peration     | Version:  3.0.1                                 |
|   \\  /    A nd           | Web:      www.OpenFOAM.org                      |
|    \\/     M anipulation  |                                                 |
\*---------------------------------------------------------------------------*/
FoamFile
{
    version     2.0;
    format      ascii;
    class       volScalarField;
    location    "0";
    object      epsilon;
}
// * * * * * * * * * * * * * * * * * * * * * * * * * * * * * * * * * * * * * //

#include        "include/initialConditions"

dimensions      [ 0 2 -3 0 0 0 0 ];

internalField   uniform $turbulentEpsilon;

boundaryField
{
	#includeEtc "caseDicts/setConstraintTypes"

    inlet
    {
    	type  		fixedValue;
    	value 		$internalField;
    }

    outlet
    {
        type            zeroGradient;
    }

	top
    {
        type            slip;
    }
    sides
    {
        type            slip;
    }

    bottom
    {
        type            epsilonWallFunction;
        value           $internalField;
    }

    wing
    {
        type            epsilonWallFunction;
        value           $internalField;
    }
}


// ************************************************************************* //
