/*--------------------------------*- C++ -*----------------------------------*\
| =========                 |                                                 |
| \\      /  F ield         | OpenFOAM: The Open Source CFD Toolbox           |
|  \\    /   O peration     | Version:  3.0.1                                 |
|   \\  /    A nd           | Web:      www.OpenFOAM.org                      |
|    \\/     M anipulation  |                                                 |
\*---------------------------------------------------------------------------*/
FoamFile
{
    version     2.0;
    format      ascii;
    class       volScalarField;
	loaction    "0";
    object      k;
}
// * * * * * * * * * * * * * * * * * * * * * * * * * * * * * * * * * * * * * //

#include        "include/initialConditions"

dimensions      [0 2 -2 0 0 0 0];

internalField   uniform $turbulentKE;

boundaryField
{
	#includeEtc "caseDicts/setConstraintTypes"

    inlet
    {
        type  		fixedValue;
    	value 		$internalField;
    }

    outlet
    {
        type            zeroGradient;
    }

	top
    {
        type            slip;
    }
    sides
    {
        type            slip;
    }

    bottom
    {
        type            kqRWallFunction;
        value           $internalField;
    }

    wing
    {
        type            kqRWallFunction;
        value           $internalField;
    }
}

// ************************************************************************* //
