/*--------------------------------*- C++ -*----------------------------------*\
| =========                 |                                                 |
| \\      /  F ield         | OpenFOAM: The Open Source CFD Toolbox           |
|  \\    /   O peration     | Version:  2.4.0                                 |
|   \\  /    A nd           | Web:      www.OpenFOAM.org                      |
|    \\/     M anipulation  |                                                 |
\*---------------------------------------------------------------------------*/
FoamFile
{
    version     2.0;
    format      ascii;
    class       volScalarField;
    location    "0";
    object      epsilon;
}
// * * * * * * * * * * * * * * * * * * * * * * * * * * * * * * * * * * * * * //
#include        "include/initialConditions"

dimensions      [ 0 2 -3 0 0 0 0 ];

internalField   uniform $turbulentEpsilon;

boundaryField
{
	#includeEtc "caseDicts/setConstraintTypes"

    inlet
    {
    	type  		fixedValue;
    	value 		$internalField;
    }

    outlet
    {
        type    zeroGradient;
    }

    right
    {
        type    empty;
    }

    left
    {
        type    empty;
    }

    foil
    {
        type     epsilonWallFunction;
        value    $internalField;
    }
}

// ************************************************************************* //
