/*--------------------------------*- C++ -*----------------------------------*\
| =========                 |                                                 |
| \\      /  F ield         | OpenFOAM: The Open Source CFD Toolbox           |
|  \\    /   O peration     | Version:  2.3.1                                 |
|   \\  /    A nd           | Web:      www.OpenFOAM.org                      |
|    \\/     M anipulation  |                                                 |
\*---------------------------------------------------------------------------*/
FoamFile
{
    version     2.0;
    format      ascii;
    class       volVectorField;
    location    "0";
    object      U;
}
// * * * * * * * * * * * * * * * * * * * * * * * * * * * * * * * * * * * * * //

#include        "include/initialConditions"

dimensions      [0 1 -1 0 0 0 0];

internalField   uniform $flowVelocity;

boundaryField
{
	#includeEtc "caseDicts/setConstraintTypes"

    inlet
    {
        type     fixedValue;
        value    $internalField; 	
    }

    outlet
    {
        type    zeroGradient;
    }

    right
    {
        type    empty;
    }

    left
    {
        type    empty;
    }

    foil
    {
        type        fixedValue;
        value       uniform (0 0 0);
    }
}

// ************************************************************************* //
